6
Lattice="16.0 0.0 0.0 0.0 16.0 0.0 0.0 0.0 16.0" Properties=species:S:1:pos:R:3:forces:R:3:magmoms:R:1 energy=-5.132597726574598 dipole="0.004023339802590093 -0.0026588419596093476 -0.01645802128708087" magmom=0.0 free_energy=-5.132606177217131 pbc="F F F"
Na      10.91908430       4.75970227      10.21303061       0.00025270      -0.00013498       0.00025637       0.00000000
Na       9.29826048       7.60147704      10.65629502       0.00001270       0.00076683      -0.00000221       0.00000000
Na       7.61224155      10.43280877      10.88330321      -0.00049244      -0.00078812      -0.00030030       0.00000000
Na       7.32603238       7.09793250       5.19712790      -0.00043619      -0.00014743      -0.00028739       0.00000000
Na       9.15046295       5.83624586       7.64061206       0.00031779      -0.00010986       0.00015999       0.00000000
Na       7.39542166       8.84219214       7.99779901       0.00035162       0.00039097       0.00013142       0.00000000
