28
Lattice="8.860755075048626 0.0 0.0 4.430377537524313 7.673638991703999 0.0 0.0 0.0 16.823184148810135" Properties=species:S:1:pos:R:3:tags:I:1:forces:R:3:magmoms:R:1 energy=-82.88359689204475 dipole="-1.1435234525875688 -0.6602135731761205 -0.2636450095137594" magmom=0.0 free_energy=-83.01456846067671 pbc="T T F"
Au       1.47679251       0.85262655       6.00000000        3       0.00228961       0.00132191      -0.08712882       0.00000000
Au       4.43037754       0.85262655       6.00000000        3      -0.02714687       0.00873072      -0.05795737       0.00000000
Au       7.38396256       0.85262655       6.00000000        3       0.01855994      -0.02524234      -0.05791296       0.00000000
Au       2.95358503       3.41050622       6.00000000        3      -0.00601241      -0.02787524      -0.05795737       0.00000000
Au       5.90717005       3.41050622       6.00000000        3      -0.00753366      -0.00434956       0.00412254       0.00000000
Au       8.86075508       3.41050622       6.00000000        3       0.00556448      -0.00865939      -0.06060392       0.00000000
Au       4.43037754       5.96838588       6.00000000        3      -0.01258054       0.02869454      -0.05791296       0.00000000
Au       7.38396256       5.96838588       6.00000000        3      -0.00471701       0.00914868      -0.06060392       0.00000000
Au      10.33754759       5.96838588       6.00000000        3       0.01246687       0.00719775       0.11438822       0.00000000
Au      -0.00000000       1.70525311       8.41159207        2      -0.02923612       0.02720865      -0.02979356       0.00000000
Au       2.95358503       1.70525311       8.41159207        2       0.03503280       0.02022620      -0.04736900       0.00000000
Au       5.90717005       1.70525311       8.41159207        2      -0.00697497      -0.01258199       0.01981918       0.00000000
Au       1.47679251       4.26313277       8.41159207        2       0.00541697      -0.24469520       0.20019416       0.00000000
Au       4.43037754       4.26313277       8.41159207        2      -0.01438381       0.00025050       0.01981918       0.00000000
Au       7.38396256       4.26313277       8.41159207        2       0.01733901       0.01001068       0.03053147       0.00000000
Au       2.95358503       6.82101244       8.41159207        2       0.20230136       0.11679875       0.20513790       0.00000000
Au       5.90717005       6.82101244       8.41159207        2       0.00894533      -0.03892355      -0.02979356       0.00000000
Au       8.86075508       6.82101244       8.41159207        2      -0.20920378       0.12703883       0.20019416       0.00000000
Au       0.00000000       0.00000000      10.82318415        1      -0.95251356      -0.54993396       0.02357054       0.00000000
Au       2.95358503       0.00000000      10.82318415        1       0.93646784      -0.54891420       0.03077288       0.00000000
Au       5.90717005       0.00000000      10.82318415        1       0.01497046       0.00325897      -0.04710301       0.00000000
Au       1.47679251       2.55787966      10.82318415        1      -0.00713972       1.08546204       0.03077288       0.00000000
Au       4.43037754       2.55787966      10.82318415        1       0.24186684       0.13964188      -0.05579221       0.00000000
Au       7.38396256       2.55787966      10.82318415        1      -0.23253551       0.13684837      -0.05166004       0.00000000
Au       2.95358503       5.11575933      10.82318415        1       0.01030758       0.01133531      -0.04710301       0.00000000
Au       5.90717005       5.11575933      10.82318415        1       0.00224641      -0.26980584      -0.05166004       0.00000000
Au       8.86075508       5.11575933      10.82318415        1      -0.00707878      -0.00408693      -0.04463594       0.00000000
O        1.47913183       0.85397716      12.16971384        0       0.00318071       0.00183638       0.02128897       0.00000000
