28
Lattice="8.421641763931781 0.0 0.0 4.2108208819658905 7.293355709136913 0.0 0.0 0.0 16.584161137365626" Properties=species:S:1:pos:R:3:tags:I:1:forces:R:3:magmoms:R:1 energy=-166.83037469588731 dipole="-0.29137097752392566 -0.16822311230747997 -0.06138463279122078" magmom=0.0 free_energy=-167.70250663786243 pbc="T T F"
Pt       1.40360696       0.81037286       6.00000000        3       0.02012869       0.01162130      -0.05377466       0.00000000
Pt       4.21082088       0.81037286       6.00000000        3      -0.01987242      -0.00319389      -0.04581086       0.00000000
Pt       7.01803480       0.81037286       6.00000000        3      -0.00355597      -0.03661603      -0.13080404       0.00000000
Pt       2.80721392       3.24149143       6.00000000        3      -0.01270220      -0.01561308      -0.04581086       0.00000000
Pt       5.61442784       3.24149143       6.00000000        3       0.00952972       0.00550199      -0.01939880       0.00000000
Pt       8.42164176       3.24149143       6.00000000        3       0.00204875      -0.00158409      -0.03407420       0.00000000
Pt       4.21082088       5.67261000       6.00000000        3      -0.03348839       0.01522845      -0.13080404       0.00000000
Pt       7.01803480       5.67261000       6.00000000        3      -0.00034749       0.00256632      -0.03407420       0.00000000
Pt       9.82524872       5.67261000       6.00000000        3       0.02561504       0.01478885      -0.14634121       0.00000000
Pt      -0.00000000       1.62074571       8.29208057        2      -0.07945167       0.08278201       0.05738822       0.00000000
Pt       2.80721392       1.62074571       8.29208057        2       0.00042194       0.00024361      -0.58501311       0.00000000
Pt       5.61442784       1.62074571       8.29208057        2       0.07997526       0.08311099       0.05737615       0.00000000
Pt       1.40360696       4.05186428       8.29208057        2      -0.10929855       0.03199405       0.05902445       0.00000000
Pt       4.21082088       4.05186428       8.29208057        2       0.11196386       0.02770511       0.05737615       0.00000000
Pt       7.01803480       4.05186428       8.29208057        2       0.00665662       0.00384320      -0.04788605       0.00000000
Pt       2.80721392       6.48298285       8.29208057        2      -0.00094369      -0.00054484      -0.13190318       0.00000000
Pt       5.61442784       6.48298285       8.29208057        2       0.03196549      -0.11019817       0.05738822       0.00000000
Pt       8.42164176       6.48298285       8.29208057        2      -0.02694162      -0.11065235       0.05902445       0.00000000
Pt       0.00000000       0.00000000      10.58416114        1      -0.32386877      -0.18698572      -0.06925570       0.00000000
Pt       2.80721392       0.00000000      10.58416114        1      -0.00648808      -0.45376761       0.41103919       0.00000000
Pt       5.61442784       0.00000000      10.58416114        1       0.32527161      -0.18331525      -0.06525719       0.00000000
Pt       1.40360696       2.43111857      10.58416114        1      -0.39621832       0.22126496       0.41103919       0.00000000
Pt       4.21082088       2.43111857      10.58416114        1       0.42024384       0.24262790       0.38345755       0.00000000
Pt       7.01803480       2.43111857      10.58416114        1      -0.00609580       0.03910289       0.01321642       0.00000000
Pt       2.80721392       4.86223714      10.58416114        1       0.00388014       0.37335111      -0.06525719       0.00000000
Pt       5.61442784       4.86223714      10.58416114        1       0.03081619      -0.02483056       0.01321642       0.00000000
Pt       8.42164176       4.86223714      10.58416114        1      -0.04444270      -0.02565901       0.00091314       0.00000000
O        2.80610828       1.62010737      11.87850274        0      -0.00489584      -0.00282662      -0.01196382       0.00000000
