28
Lattice="8.145870119269027 0.0 0.0 4.0729350596345135 7.0545304592155516 0.0 0.0 0.0 16.434050067376326" Properties=species:S:1:pos:R:3:tags:I:1:forces:R:3:magmoms:R:1 energy=-189.20037151727468 dipole="-0.8661400162376679 -0.5000661716215054 -0.15299422567273552" magmom=0.0 free_energy=-190.01347326917445 pbc="T T F"
Rh       1.35778046       0.78391492       6.07244602        3      -0.00009068      -0.00005236       0.00237246       0.00000000
Rh       4.07651282       0.77547474       6.08096844        3       0.00030641      -0.00169384       0.00423904       0.00000000
Rh       6.78605623       0.77472707       6.08195996        3      -0.00032981      -0.00168119       0.00412108       0.00000000
Rh       2.70983723       3.14262629       6.08096844        3      -0.00131371       0.00111228       0.00423904       0.00000000
Rh       5.43161007       3.13594154       6.08168826        3       0.00006646       0.00003837       0.00498210       0.00000000
Rh       8.15331751       3.14239923       6.08064227        3       0.00117732       0.00107036       0.00434308       0.00000000
Rh       4.06396144       5.48953355       6.08195996        3      -0.00162085       0.00055497       0.00412108       0.00000000
Rh       6.79805632       5.48978048       6.08064227        3       0.00151562       0.00048441       0.00434308       0.00000000
Rh       9.50515087       5.48780141       6.02855164        3      -0.00014195      -0.00008195       0.00613212       0.00000000
Rh       0.00070088       1.56783138       8.22491658        2       0.00356765      -0.00189019       0.00565535       0.00000000
Rh       2.71401983       1.56694008       8.22483630        2      -0.00337256      -0.00194715       0.00578129       0.00000000
Rh       5.43057577       1.56431207       8.23616952        2       0.00015525      -0.00096143      -0.00558524       0.00000000
Rh       1.35808982       3.91560815       8.25029218        2      -0.00010417       0.00181995       0.00300466       0.00000000
Rh       4.07002188       3.92086054       8.23616952        2      -0.00075500       0.00061517      -0.00558524       0.00000000
Rh       6.79139792       3.92101542       8.23577377        2       0.00067534       0.00038991      -0.00547855       0.00000000
Rh       2.71910377       6.27289560       8.25217357        2      -0.00135299      -0.00078115       0.00287243       0.00000000
Rh       5.43106730       6.27122175       8.22491658        2       0.00014687       0.00403477       0.00565535       0.00000000
Rh       8.14299610       6.27286667       8.25029218        2       0.00152404      -0.00100019       0.00300466       0.00000000
Rh      -0.01765355      -0.01019228      10.46764020        1      -0.00274361      -0.00158402      -0.00049835       0.00000000
Rh       2.73229838      -0.01195034      10.46845336        1       0.00291426      -0.00147334      -0.00021339       0.00000000
Rh       5.42888334       0.00400993      10.39414832        1       0.00007907      -0.00031196      -0.00301961       0.00000000
Rh       1.35579989       2.37221497      10.46845336        1       0.00018118       0.00326049      -0.00021339       0.00000000
Rh       4.09763621       2.36577137      10.39278043        1      -0.00065258      -0.00037677      -0.00190064       0.00000000
Rh       6.76102100       2.36547573      10.39317960        1       0.00106810      -0.00052825      -0.00181325       0.00000000
Rh       2.71791437       4.69954593      10.39414832        1      -0.00023063       0.00022446      -0.00301961       0.00000000
Rh       5.42907258       4.67247808      10.39317960        1       0.00007657       0.00118912      -0.00181325       0.00000000
Rh       8.14111734       4.70027629      10.39341678        1       0.00036178       0.00020887      -0.00286247       0.00000000
O        1.35926618       0.78477270      11.74410593        0      -0.00002365      -0.00001365       0.00142655       0.00000000
